<?xml version="1.0" encoding="UTF-8"?>


<net version="1.16" junctionCornerDetail="5" limitTurnSpeed="5.50" xmlns:xsi="http://www.w3.org/2001/XMLSchema-instance" xsi:noNamespaceSchemaLocation="http://sumo.dlr.de/xsd/net_file.xsd">

    <location netOffset="0.00,0.00" convBoundary="-160.00,-160.00,160.00,160.00" origBoundary="-10000000000.00,-10000000000.00,10000000000.00,10000000000.00" projParameter="!"/>

    <edge id=":J0_0" function="internal">
        <lane id=":J0_0_0" index="0" speed="6.51" length="9.03" shape="-4.80,10.40 -5.15,7.95 -6.20,6.20 -7.95,5.15 -10.40,4.80"/>
    </edge>
    <edge id=":J0_1" function="internal">
        <lane id=":J0_1_0" index="0" speed="13.89" length="20.80" shape="-4.80,10.40 -4.80,-10.40"/>
        <lane id=":J0_1_1" index="1" speed="13.89" length="20.80" shape="-1.60,10.40 -1.60,-10.40"/>
    </edge>
    <edge id=":J0_3" function="internal">
        <lane id=":J0_3_0" index="0" speed="9.26" length="5.01" shape="-1.60,10.40 -0.89,5.44"/>
    </edge>
    <edge id=":J0_16" function="internal">
        <lane id=":J0_16_0" index="0" speed="9.26" length="14.34" shape="-0.89,5.44 -0.85,5.15 1.40,1.40 5.15,-0.85 10.40,-1.60"/>
    </edge>
    <edge id=":J0_4" function="internal">
        <lane id=":J0_4_0" index="0" speed="6.51" length="9.03" shape="10.40,4.80 7.95,5.15 6.20,6.20 5.15,7.95 4.80,10.40"/>
    </edge>
    <edge id=":J0_5" function="internal">
        <lane id=":J0_5_0" index="0" speed="13.89" length="20.80" shape="10.40,4.80 -10.40,4.80"/>
        <lane id=":J0_5_1" index="1" speed="13.89" length="20.80" shape="10.40,1.60 -10.40,1.60"/>
    </edge>
    <edge id=":J0_7" function="internal">
        <lane id=":J0_7_0" index="0" speed="9.26" length="5.01" shape="10.40,1.60 5.44,0.89"/>
    </edge>
    <edge id=":J0_17" function="internal">
        <lane id=":J0_17_0" index="0" speed="9.26" length="14.34" shape="5.44,0.89 5.15,0.85 1.40,-1.40 -0.85,-5.15 -1.60,-10.40"/>
    </edge>
    <edge id=":J0_8" function="internal">
        <lane id=":J0_8_0" index="0" speed="6.51" length="9.03" shape="4.80,-10.40 5.15,-7.95 6.20,-6.20 7.95,-5.15 10.40,-4.80"/>
    </edge>
    <edge id=":J0_9" function="internal">
        <lane id=":J0_9_0" index="0" speed="13.89" length="20.80" shape="4.80,-10.40 4.80,10.40"/>
        <lane id=":J0_9_1" index="1" speed="13.89" length="20.80" shape="1.60,-10.40 1.60,10.40"/>
    </edge>
    <edge id=":J0_11" function="internal">
        <lane id=":J0_11_0" index="0" speed="9.26" length="5.01" shape="1.60,-10.40 0.89,-5.44"/>
    </edge>
    <edge id=":J0_18" function="internal">
        <lane id=":J0_18_0" index="0" speed="9.26" length="14.34" shape="0.89,-5.44 0.85,-5.15 -1.40,-1.40 -5.15,0.85 -10.40,1.60"/>
    </edge>
    <edge id=":J0_12" function="internal">
        <lane id=":J0_12_0" index="0" speed="6.51" length="9.03" shape="-10.40,-4.80 -7.95,-5.15 -6.20,-6.20 -5.15,-7.95 -4.80,-10.40"/>
    </edge>
    <edge id=":J0_13" function="internal">
        <lane id=":J0_13_0" index="0" speed="13.89" length="20.80" shape="-10.40,-4.80 10.40,-4.80"/>
        <lane id=":J0_13_1" index="1" speed="13.89" length="20.80" shape="-10.40,-1.60 10.40,-1.60"/>
    </edge>
    <edge id=":J0_15" function="internal">
        <lane id=":J0_15_0" index="0" speed="9.26" length="5.01" shape="-10.40,-1.60 -5.44,-0.89"/>
    </edge>
    <edge id=":J0_19" function="internal">
        <lane id=":J0_19_0" index="0" speed="9.26" length="14.34" shape="-5.44,-0.89 -5.15,-0.85 -1.40,1.40 0.85,5.15 1.60,10.40"/>
    </edge>

    <edge id="-E1" from="J0" to="J1" priority="-1">
        <lane id="-E1_0" index="0" speed="13.89" length="149.60" shape="-10.40,4.80 -160.00,4.80"/>
        <lane id="-E1_1" index="1" speed="13.89" length="149.60" shape="-10.40,1.60 -160.00,1.60"/>
    </edge>
    <edge id="-E2" from="J0" to="J2" priority="-1">
        <lane id="-E2_0" index="0" speed="13.89" length="149.60" shape="-4.80,-10.40 -4.80,-160.00"/>
        <lane id="-E2_1" index="1" speed="13.89" length="149.60" shape="-1.60,-10.40 -1.60,-160.00"/>
    </edge>
    <edge id="-E3" from="J0" to="J3" priority="-1">
        <lane id="-E3_0" index="0" speed="13.89" length="149.60" shape="10.40,-4.80 160.00,-4.80"/>
        <lane id="-E3_1" index="1" speed="13.89" length="149.60" shape="10.40,-1.60 160.00,-1.60"/>
    </edge>
    <edge id="-E4" from="J0" to="J4" priority="-1">
        <lane id="-E4_0" index="0" speed="13.89" length="149.60" shape="4.80,10.40 4.80,160.00"/>
        <lane id="-E4_1" index="1" speed="13.89" length="149.60" shape="1.60,10.40 1.60,160.00"/>
    </edge>
    <edge id="E1" from="J1" to="J0" priority="-1">
        <lane id="E1_0" index="0" speed="13.89" length="149.60" shape="-160.00,-4.80 -10.40,-4.80"/>
        <lane id="E1_1" index="1" speed="13.89" length="149.60" shape="-160.00,-1.60 -10.40,-1.60"/>
    </edge>
    <edge id="E2" from="J2" to="J0" priority="-1">
        <lane id="E2_0" index="0" speed="13.89" length="149.60" shape="4.80,-160.00 4.80,-10.40"/>
        <lane id="E2_1" index="1" speed="13.89" length="149.60" shape="1.60,-160.00 1.60,-10.40"/>
    </edge>
    <edge id="E3" from="J3" to="J0" priority="-1">
        <lane id="E3_0" index="0" speed="13.89" length="149.60" shape="160.00,4.80 10.40,4.80"/>
        <lane id="E3_1" index="1" speed="13.89" length="149.60" shape="160.00,1.60 10.40,1.60"/>
    </edge>
    <edge id="E4" from="J4" to="J0" priority="-1">
        <lane id="E4_0" index="0" speed="13.89" length="149.60" shape="-4.80,160.00 -4.80,10.40"/>
        <lane id="E4_1" index="1" speed="13.89" length="149.60" shape="-1.60,160.00 -1.60,10.40"/>
    </edge>

    <tlLogic id="J0" type="static" programID="0" offset="0">
        <phase duration="42" state="GGGgrrrrGGGgrrrr" next="1"/>
        <phase duration="3"  state="yyyyrrrryyyyrrrr" next="2"/>
        <phase duration="3"  state="rrrrrrrrrrrrrrrr" next="3"/>
        <phase duration="42" state="rrrrGGGgrrrrGGGg" next="4"/>
        <phase duration="3"  state="rrrryyyyrrrryyyy" next="5"/>
        <phase duration="3"  state="rrrrrrrrrrrrrrrr" next="0"/>
    </tlLogic>
    <tlLogic id="J0" type="static" programID="1" offset="0">
        <phase duration="1000000" state="GGGgrrrrGGGgrrrr" next="1"/>
        <phase duration="3"  state="yyyyrrrryyyyrrrr" next="2"/>
        <phase duration="3"  state="rrrrrrrrrrrrrrrr" next="3"/>
        <phase duration="1000000" state="rrrrGGGgrrrrGGGg" next="4"/>
        <phase duration="3"  state="rrrryyyyrrrryyyy" next="5"/>
        <phase duration="3"  state="rrrrrrrrrrrrrrrr" next="0"/>
    </tlLogic>

    <junction id="J0" type="traffic_light" x="0.00" y="0.00" incLanes="E4_0 E4_1 E3_0 E3_1 E2_0 E2_1 E1_0 E1_1" intLanes=":J0_0_0 :J0_1_0 :J0_1_1 :J0_16_0 :J0_4_0 :J0_5_0 :J0_5_1 :J0_17_0 :J0_8_0 :J0_9_0 :J0_9_1 :J0_18_0 :J0_12_0 :J0_13_0 :J0_13_1 :J0_19_0" shape="-6.40,10.40 6.40,10.40 6.84,8.18 7.40,7.40 8.18,6.84 9.18,6.51 10.40,6.40 10.40,-6.40 8.18,-6.84 7.40,-7.40 6.84,-8.18 6.51,-9.18 6.40,-10.40 -6.40,-10.40 -6.84,-8.18 -7.40,-7.40 -8.18,-6.84 -9.18,-6.51 -10.40,-6.40 -10.40,6.40 -8.18,6.84 -7.40,7.40 -6.84,8.18 -6.51,9.18">
        <request index="0"  response="0000000000000000" foes="0000000001100000" cont="0"/>
        <request index="1"  response="1000000010000000" foes="1111100011100000" cont="0"/>
        <request index="2"  response="1000000010000000" foes="1111100011100000" cont="0"/>
        <request index="3"  response="1000011010000000" foes="1110011011100000" cont="1"/>
        <request index="4"  response="0000011000000000" foes="0000011000000000" cont="0"/>
        <request index="5"  response="0000111000001111" foes="1000111000001111" cont="0"/>
        <request index="6"  response="0000111000001111" foes="1000111000001111" cont="0"/>
        <request index="7"  response="0110111000001110" foes="0110111000001110" cont="1"/>
        <request index="8"  response="0000000000000000" foes="0110000000000000" cont="0"/>
        <request index="9"  response="1000000010000000" foes="1110000011111000" cont="0"/>
        <request index="10" response="1000000010000000" foes="1110000011111000" cont="0"/>
        <request index="11" response="1000000010000110" foes="1110000011100110" cont="1"/>
        <request index="12" response="0000000000000110" foes="0000000000000110" cont="0"/>
        <request index="13" response="0000111100001110" foes="0000111110001110" cont="0"/>
        <request index="14" response="0000111100001110" foes="0000111110001110" cont="0"/>
        <request index="15" response="0000111001101110" foes="0000111001101110" cont="1"/>
    </junction>
    <junction id="J1" type="dead_end" x="-160.00" y="0.00" incLanes="-E1_0 -E1_1" intLanes="" shape="-160.00,0.00 -160.00,6.40 -160.00,0.00" rightOfWay="edgePriority"/>
    <junction id="J2" type="dead_end" x="0.00" y="-160.00" incLanes="-E2_0 -E2_1" intLanes="" shape="0.00,-160.00 -6.40,-160.00 0.00,-160.00"/>
    <junction id="J3" type="dead_end" x="160.00" y="0.00" incLanes="-E3_0 -E3_1" intLanes="" shape="160.00,0.00 160.00,-6.40 160.00,0.00"/>
    <junction id="J4" type="dead_end" x="0.00" y="160.00" incLanes="-E4_0 -E4_1" intLanes="" shape="0.00,160.00 6.40,160.00 0.00,160.00"/>

    <junction id=":J0_16_0" type="internal" x="-0.89" y="5.44" incLanes=":J0_3_0 E2_0 E2_1" intLanes=":J0_5_0 :J0_5_1 :J0_7_0 :J0_8_0 :J0_9_0 :J0_9_1 :J0_13_0 :J0_13_1 :J0_15_0"/>
    <junction id=":J0_17_0" type="internal" x="5.44" y="0.89" incLanes=":J0_7_0 E1_0 E1_1" intLanes=":J0_1_0 :J0_1_1 :J0_3_0 :J0_9_0 :J0_9_1 :J0_11_0 :J0_12_0 :J0_13_0 :J0_13_1"/>
    <junction id=":J0_18_0" type="internal" x="0.89" y="-5.44" incLanes=":J0_11_0 E4_0 E4_1" intLanes=":J0_0_0 :J0_1_0 :J0_1_1 :J0_5_0 :J0_5_1 :J0_7_0 :J0_13_0 :J0_13_1 :J0_15_0"/>
    <junction id=":J0_19_0" type="internal" x="-5.44" y="-0.89" incLanes=":J0_15_0 E3_0 E3_1" intLanes=":J0_1_0 :J0_1_1 :J0_3_0 :J0_4_0 :J0_5_0 :J0_5_1 :J0_9_0 :J0_9_1 :J0_11_0"/>

    <connection from="E1" to="-E2" fromLane="0" toLane="0" via=":J0_12_0" tl="J0" linkIndex="12" dir="r" state="o"/>
    <connection from="E1" to="-E3" fromLane="0" toLane="0" via=":J0_13_0" tl="J0" linkIndex="13" dir="s" state="o"/>
    <connection from="E1" to="-E3" fromLane="1" toLane="1" via=":J0_13_1" tl="J0" linkIndex="14" dir="s" state="o"/>
    <connection from="E1" to="-E4" fromLane="1" toLane="1" via=":J0_15_0" tl="J0" linkIndex="15" dir="l" state="o"/>
    <connection from="E2" to="-E3" fromLane="0" toLane="0" via=":J0_8_0" tl="J0" linkIndex="8" dir="r" state="O"/>
    <connection from="E2" to="-E4" fromLane="0" toLane="0" via=":J0_9_0" tl="J0" linkIndex="9" dir="s" state="O"/>
    <connection from="E2" to="-E4" fromLane="1" toLane="1" via=":J0_9_1" tl="J0" linkIndex="10" dir="s" state="O"/>
    <connection from="E2" to="-E1" fromLane="1" toLane="1" via=":J0_11_0" tl="J0" linkIndex="11" dir="l" state="o"/>
    <connection from="E3" to="-E4" fromLane="0" toLane="0" via=":J0_4_0" tl="J0" linkIndex="4" dir="r" state="o"/>
    <connection from="E3" to="-E1" fromLane="0" toLane="0" via=":J0_5_0" tl="J0" linkIndex="5" dir="s" state="o"/>
    <connection from="E3" to="-E1" fromLane="1" toLane="1" via=":J0_5_1" tl="J0" linkIndex="6" dir="s" state="o"/>
    <connection from="E3" to="-E2" fromLane="1" toLane="1" via=":J0_7_0" tl="J0" linkIndex="7" dir="l" state="o"/>
    <connection from="E4" to="-E1" fromLane="0" toLane="0" via=":J0_0_0" tl="J0" linkIndex="0" dir="r" state="O"/>
    <connection from="E4" to="-E2" fromLane="0" toLane="0" via=":J0_1_0" tl="J0" linkIndex="1" dir="s" state="O"/>
    <connection from="E4" to="-E2" fromLane="1" toLane="1" via=":J0_1_1" tl="J0" linkIndex="2" dir="s" state="O"/>
    <connection from="E4" to="-E3" fromLane="1" toLane="1" via=":J0_3_0" tl="J0" linkIndex="3" dir="l" state="o"/>

    <connection from=":J0_0" to="-E1" fromLane="0" toLane="0" dir="r" state="M"/>
    <connection from=":J0_1" to="-E2" fromLane="0" toLane="0" dir="s" state="M"/>
    <connection from=":J0_1" to="-E2" fromLane="1" toLane="1" dir="s" state="M"/>
    <connection from=":J0_3" to="-E3" fromLane="0" toLane="1" via=":J0_16_0" dir="l" state="m"/>
    <connection from=":J0_16" to="-E3" fromLane="0" toLane="1" dir="l" state="M"/>
    <connection from=":J0_4" to="-E4" fromLane="0" toLane="0" dir="r" state="M"/>
    <connection from=":J0_5" to="-E1" fromLane="0" toLane="0" dir="s" state="M"/>
    <connection from=":J0_5" to="-E1" fromLane="1" toLane="1" dir="s" state="M"/>
    <connection from=":J0_7" to="-E2" fromLane="0" toLane="1" via=":J0_17_0" dir="l" state="m"/>
    <connection from=":J0_17" to="-E2" fromLane="0" toLane="1" dir="l" state="M"/>
    <connection from=":J0_8" to="-E3" fromLane="0" toLane="0" dir="r" state="M"/>
    <connection from=":J0_9" to="-E4" fromLane="0" toLane="0" dir="s" state="M"/>
    <connection from=":J0_9" to="-E4" fromLane="1" toLane="1" dir="s" state="M"/>
    <connection from=":J0_11" to="-E1" fromLane="0" toLane="1" via=":J0_18_0" dir="l" state="m"/>
    <connection from=":J0_18" to="-E1" fromLane="0" toLane="1" dir="l" state="M"/>
    <connection from=":J0_12" to="-E2" fromLane="0" toLane="0" dir="r" state="M"/>
    <connection from=":J0_13" to="-E3" fromLane="0" toLane="0" dir="s" state="M"/>
    <connection from=":J0_13" to="-E3" fromLane="1" toLane="1" dir="s" state="M"/>
    <connection from=":J0_15" to="-E4" fromLane="0" toLane="1" via=":J0_19_0" dir="l" state="m"/>
    <connection from=":J0_19" to="-E4" fromLane="0" toLane="1" dir="l" state="M"/>

</net>
