<?xml version="1.0" encoding="UTF-8"?>

<!-- generated on 2024-05-07 17:37:37 by Eclipse SUMO netedit Version 1.19.0
-->

<additional xmlns:xsi="http://www.w3.org/2001/XMLSchema-instance" xsi:noNamespaceSchemaLocation="http://sumo.dlr.de/xsd/additional_file.xsd">
    <!-- Detectors -->
    <inductionLoop id="IL-E1dx" lane="-E1_0" pos="145.00" period="300.00" file="NUL"/>
    <inductionLoop id="IL-E1sx" lane="-E1_1" pos="145.00" period="300.00" file="NUL"/>
    <inductionLoop id="IL-E2dx" lane="-E2_0" pos="145.00" period="300.00" file="NUL"/>
    <inductionLoop id="IL-E2sx" lane="-E2_1" pos="145.00" period="300.00" file="NUL"/>
    <inductionLoop id="IL-E3dx" lane="-E3_0" pos="145.00" period="300.00" file="NUL"/>
    <inductionLoop id="IL-E3sx" lane="-E3_1" pos="145.00" period="300.00" file="NUL"/>
    <inductionLoop id="IL-E4dx" lane="-E4_0" pos="145.00" period="300.00" file="NUL"/>
    <inductionLoop id="IL-E4sx" lane="-E4_1" pos="145.00" period="300.00" file="NUL"/>
    <inductionLoop id="ILE1dx" lane="E1_0" pos="1.00" period="300.00" file="NUL"/>
    <inductionLoop id="ILE1sx" lane="E1_1" pos="1.00" period="300.00" file="NUL"/>
    <inductionLoop id="ILE2dx" lane="E2_0" pos="1.00" period="300.00" file="NUL"/>
    <inductionLoop id="ILE2sx" lane="E2_1" pos="1.00" period="300.00" file="NUL"/>
    <inductionLoop id="ILE3dx" lane="E3_0" pos="1.00" period="300.00" file="NUL"/>
    <inductionLoop id="ILE3sx" lane="E3_1" pos="1.00" period="300.00" file="NUL"/>
    <inductionLoop id="ILE4dx" lane="E4_0" pos="1.00" period="300.00" file="NUL"/>
    <inductionLoop id="ILE4sx" lane="E4_1" pos="1.00" period="300.00" file="NUL"/>
</additional>
